16

C    0.84988    1.82125   -0.76302
C    0.58081    1.22378   -2.65267
C   -0.36138    2.10914    0.80232
C   -2.20272    2.52279    0.14000
C    0.22938    1.49840    2.61300
C    1.94406    2.27957    3.28386
C   -0.38631   -0.31960    3.17560
C   -0.62881   -0.80558    5.10056
C   -0.49575   -1.83283    1.87217
C   -1.65249   -1.44577    0.28707
C    0.67082   -3.44613    1.67950
C    1.52867   -4.05334    3.38122
C    0.60614   -4.42386   -0.06422
C    0.23077   -6.38155    0.09974
C    0.17049   -3.49411   -1.78071
C   -0.93355   -2.64216   -3.21445
