16

C   -2.77624    1.04163    1.12974
C   -2.36670    1.04583    3.08741
C   -1.98241    0.55720   -0.64101
C   -2.97664   -0.77909   -1.74834
C   -0.07109    1.07208   -0.92798
C    0.18824    2.55292   -2.24719
C    1.29699    0.00734    0.06973
C    0.71015   -1.11252    1.61956
C    3.16817   -0.26235   -0.58347
C    4.29925    1.38466   -0.67564
C    3.46729   -2.09783   -1.31985
C    3.91544   -3.80605   -0.38091
C    2.77780   -2.34203   -3.18144
C    2.56336   -0.73629   -4.35443
C    1.91320   -3.99380   -3.90567
C    0.75322   -4.37174   -5.49053
