16

C    0.00000    0.00000    0.00000
C   -0.39000    0.72000   -0.58000
C   -0.46000   -0.72000   -0.52000
C   -1.30000   -0.23000   -0.29000
C   -1.31000   -1.22000   -0.72000
C   -0.99000   -2.11000   -1.04000
C   -2.17000   -1.72000   -0.87000
C   -2.64000   -2.13000   -0.09000
C   -2.85000   -1.13000   -1.30000
C   -3.11000   -2.05000   -1.01000
C   -2.87000   -0.32000   -1.89000
C   -3.72000   -0.85000   -1.93000
C   -2.14000   -0.80000   -2.38000
C   -2.43000   -1.02000   -3.31000
C   -1.39000   -1.36000   -2.03000
C   -0.59000   -1.07000   -1.51000
