16

C    0.00000    0.00000    0.00000
C    0.68000    0.29000   -0.68000
C    0.02000    0.99000   -0.12000
C    0.98000    1.14000    0.13000
C   -0.94000    0.78000    0.04000
C   -1.40000   -0.08000    0.25000
C   -1.62000    1.48000    0.26000
C   -1.96000    1.69000   -0.66000
C   -2.24000    1.34000    1.03000
C   -3.13000    1.71000    0.76000
C   -1.78000    1.52000    1.90000
C   -0.84000    1.78000    2.13000
C   -1.46000    2.02000    1.10000
C   -1.51000    2.74000    1.79000
C   -1.56000    2.94000    0.73000
C   -0.83000    2.83000    0.06000
