16

C    0.00000    0.00000    0.00000
C   -0.88000   -0.44000   -0.20000
C    0.41000    0.65000    0.64000
C    0.96000    1.07000    1.36000
C    0.15000    1.56000    0.95000
C    0.14000    1.25000    1.90000
C    0.16000    1.66000   -0.04000
C   -0.78000    1.85000    0.24000
C   -0.42000    1.03000   -0.56000
C    0.36000    0.51000   -0.92000
C   -0.00000    1.73000   -1.14000
C    0.47000    2.00000   -1.98000
C   -0.81000    1.41000   -1.63000
C   -1.57000    1.59000   -2.26000
C   -1.70000    1.33000   -1.19000
C   -1.16000    2.15000   -0.99000
