16

C    0.00000    0.00000    0.00000
C   -0.56000   -0.48000    0.68000
C    0.65000   -0.71000   -0.28000
C    0.12000   -0.56000   -1.12000
C    1.59000   -0.37000   -0.32000
C    1.10000    0.31000    0.23000
C    1.94000    0.56000   -0.42000
C    1.38000    0.27000   -1.20000
C    2.36000    1.34000    0.05000
C    1.66000    1.68000   -0.57000
C    2.83000    1.09000    0.89000
C    3.59000    1.61000    1.27000
C    2.82000    0.10000    1.03000
C    2.19000   -0.14000    1.77000
C    3.39000   -0.53000    1.56000
C    3.09000   -1.43000    1.25000
