16

C    0.00000    0.00000    0.00000
C    0.38000   -0.71000    0.58000
C    0.10000    0.25000    0.96000
C    0.85000   -0.26000    1.38000
C   -0.82000   -0.04000    1.22000
C   -1.51000   -0.66000    0.84000
C   -0.49000   -0.89000    1.63000
C   -0.97000   -1.31000    2.40000
C    0.20000   -1.59000    1.81000
C    1.12000   -1.43000    2.16000
C    0.20000   -2.19000    2.61000
C   -0.32000   -2.79000    3.22000
C   -0.56000   -2.69000    2.20000
C   -1.21000   -3.41000    2.44000
C   -0.69000   -2.26000    1.31000
C   -1.43000   -2.17000    1.97000
